<nodes>
<node id="nd1" x="0" y="0" />
<node id="nd2" x="1000" y="0" />
<node id="nd3" x="2000" y="0" />
<node id="nd4" x="3000" y="0" />
<node id="nd5" x="4000" y="0" />
<node id="nd6" x="5000" y="0" />
</nodes>
