<types>
<type id="70kmh" numLanes="3" speed="19.44"/>
</types>
